/*--------------------------------*- C++ -*----------------------------------*\
  =========                 |
  \\      /  F ield         | OpenFOAM: The Open Source CFD Toolbox
   \\    /   O peration     | Website:  https://openfoam.org
    \\  /    A nd           | Version:  11
     \\/     M anipulation  |
\*---------------------------------------------------------------------------*/
FoamFile
{
    format      ascii;
    class       dictionary;
    location    "constant";
    object      transportProperties;
}
// * * * * * * * * * * * * * * * * * * * * * * * * * * * * * * * * * * * * * //


    // water phase (phase 1)
Dwater           Dwater [0 2 -1 0 0 0 0] 2.42e-9;
    // air phase (phase 2)
Dair           Dair [0 2 -1 0 0 0 0] 1.98e-5;

Temp            Temp [ 0 0 0 1 0 0 0 ] 298.15;
Schmidtnumber	Schmidtnumber [ 0 0 0 0 0 0 0 ] 1;

O2
{
    // optional: override values
    Hcp   1.3e-5;     
    Ctemp   1700;
}
// ************************************************************************* //



